powerflow/autotest/test_impedance_dump_noname.glm
//Autotest file
//Runs impedance dump with empty names - used to cause segfaults
//Basically, it should just run without issues

clock {
	timezone PST+8PDT; //UTC-5
	starttime '2018-06-30 14:00:00';
	stoptime '2018-06-30 15:00:00';
}

module powerflow;

object impedance_dump {
	filename impedance_output.xml;
}

object overhead_line_conductor {
	name overhead_line_conductor100;
	geometric_mean_radius 0.0244;
	resistance 0.306;
}

object overhead_line_conductor {
	name overhead_line_conductor101;
	geometric_mean_radius 0.00814;
	resistance 0.592;
}

object line_spacing {
	name line_spacing200;
	distance_AB 2.5;
	distance_BC 4.5;
	distance_AC 7.0;
	distance_AN 5.656854;
	distance_BN 4.272002;
	distance_CN 5.0;
}

object line_configuration {
	name line_configuration300;
	conductor_A overhead_line_conductor100;
	conductor_B overhead_line_conductor100;
	conductor_C overhead_line_conductor100;
	conductor_N overhead_line_conductor101;
	spacing line_spacing200;
}

object transformer_configuration {
	name transformer_configuration400;
	connect_type 1;
	power_rating 6000;
	powerA_rating 2000;
	powerB_rating 2000;
	powerC_rating 2000;
	primary_voltage 12470;
	secondary_voltage 4160;
	resistance 0.01;
	reactance 0.06;
}

object node {
	name node1;
	bustype SWING;
	phases "ABCN";
	nominal_voltage 7200;
}

object overhead_line {
	phases "ABCN";
	//name node12;
	from node1;
	to node2;
	length 2000;
	configuration line_configuration300;
}

object node {
	name node2;
	phases "ABCN";
	nominal_voltage 7200;
}

object transformer {
	name transformer23;
	phases "ABCN";
	from node2;
	to node3;
	configuration transformer_configuration400;
}

object node {
	name node3;
	phases "ABCN";
	nominal_voltage 2400;
}

object overhead_line:34 {
	phases "ABCN";
	from node3;
	name node34;
	to node4;
	length 2500;
	configuration line_configuration300;
}

object node {
	name node4;
	phases "ABCN";
	nominal_voltage 2400;
}
